*Heading
** Job name: Job-1 Model name: Model-1
** Generated by: Abaqus/CAE 2020
*Preprint, echo=NO, model=NO, history=NO, contact=NO
**
** PARTS
**
*Part, name=LiftBoom
*Node
      1,   1.09800005, -0.00107796967, 0.0799999982
      2,   1.26800001, -0.00107796967, 0.0799999982
      3,   1.28638124, 0.0582246333, 0.0799999982
      4,   1.27909052,  0.063224636, 0.0799999982
      5,   1.26070929, 0.0689220279, 0.0799999982
      6,   1.10816252, 0.0689220279, 0.0799999982
      7,   1.09381497,  0.065583609, 0.0799999982
      8,    1.0836525, 0.0605836064, 0.0799999982
      9,   1.19185007,  0.229596451, 0.0637762323
     10,   1.07457602,  0.110010251, 0.0913848802
     11,   1.32706761,  0.110010251, 0.0913848802
     12,   1.31242537,  0.203303978, 0.0698463246
     13,   1.26300001,  0.244657859, 0.0602990314
     14,   1.22800004,  0.244657859, 0.0602990314
     15,   1.22599995,  0.200811207, 0.0704218298
     16,   1.28999996,  0.200811207, 0.0704218298
     17,   1.28999996,  0.191067502, 0.0726713389
     18,   1.22599995,  0.191067502, 0.0726713389
     19,   1.07457602,  0.110010251, -0.0913848802
     20,   1.19185007,  0.229596451, -0.0637762323
** ... 5065 like lines cut
*Element, type=C3D4
    1, 5032, 5033,  203, 4126
    2, 5032, 4132, 4126, 4116
    3, 5032, 4126, 4132, 4057
    4, 4060,  180,  179, 4116
    5, 4059, 4057, 5033,  365
    6, 5034, 2914, 3609, 2918
    7,  410,    5, 2091, 2537
    8, 5035, 2145, 1762, 5034
    9, 2145, 5035, 1762, 2144
   10, 5034, 2914, 1762, 3609
   11, 5034, 5035, 2918, 1654
   12, 5035, 1762, 1654, 5034
   13,  273, 5035, 1762, 1654
   14, 5036,  222,  223,  220
   15, 2918, 2942, 2937, 1653
   16, 5037, 2095,  466, 5038
   17, 5038, 5037,    6,   50
   18, 5038, 5037,   50,  466
   19, 2443, 1922, 3897, 2444
   20, 4224, 5039, 2541, 2539
** ... 15081 like lines cut
*Nset, nset=Set-1, generate
    1,  5085,     1
*Elset, elset=Set-1, generate
     1,  15101,      1
** Section: Section-1
*Solid Section, elset=Set-1, material=Steel
,
*End Part
**  
**
** ASSEMBLY
**
*Assembly, name=Assembly
**  
*Instance, name=LiftBoom-1, part=LiftBoom
*End Instance
**  
*End Assembly
** 
** MATERIALS
** 
*Material, name=Steel
*Density
7850.,
*Elastic
 2.1e+11, 0.3
** ----------------------------------------------------------------
** 
** STEP: Step-1
** 
*Step, name=Step-1, nlgeom=NO, perturbation
*Frequency, eigensolver=Lanczos, sim, acoustic coupling=on, normalization=mass
10, , , , , 
** 
** OUTPUT REQUESTS
** 
*Restart, write, frequency=0
** 
** FIELD OUTPUT: F-Output-1
** 
*Output, field, variable=PRESELECT
*End Step
** ----------------------------------------------------------------
** 
** 
** STEP: Matrix gen
*Step, name=matrix-step
*Matrix generate, stiffness, mass
*Matrix output, stiffness, mass, format=coordinate
*End Step
