*Heading
** Job name: Job-1 Model name: Model-1
** Generated by: Abaqus/CAE 2020
*Preprint, echo=NO, model=NO, history=NO, contact=NO
**
** PARTS
** 
*Part, name=TiltBoom
*Node
      1, -0.0689999983,  0.243199319, 0.0450110957
      2, -0.120999999,  0.243199319, 0.0510110967
      3,  -0.39199999,        0.287, 0.0450110957
      4, -0.437999994,        0.287, 0.0510110967
      5, -0.465000004,  0.185000002, 0.0390110984
      6,   1.80499995,  0.185000002, 0.0390110984
      7,   1.80499995,  0.196999997, 0.0510110967
      8, -0.465000004,  0.196999997, 0.0510110967
      9,   1.80499995,  0.335000008, 0.0510110967
     10, -0.465000004,  0.335000008, 0.0510110967
     11,   1.80499995,  0.347000003, 0.0390110984
     12, -0.465000004,  0.347000003, 0.0390110984
     13,   1.80499995,  0.347000003, -0.0389883183
     14, -0.465000004,  0.347000003, -0.0389883183
     15, -0.465000004,  0.185000002, -0.0390110984
     16,   1.80499995,  0.185000002, -0.0390110984
     17, -0.465000004,  0.340999991, -0.0367459431
     18,   1.80499995,  0.340999991, -0.0367459431
     19,   1.80499995,  0.340999991, 0.0402482636
     20, -0.465000004,  0.340999991, 0.0402482636
** ... 2597 like lines cut
*Element, type=C3D4
   1,  243,  244, 2509, 2510
   2, 1421, 2510, 1914, 1422
   3, 2149,  952,  823, 2148
   4, 1434, 1433,  264, 1926
   5, 2511, 1399, 1891, 1400
   6, 2511, 1399,  298,  299
   7,  291,  668, 1475,  290
   8, 2512,  229, 1408, 1407
   9, 2126,  470, 2125, 2513
  10, 2514,  800, 2228,  975
  11, 2130, 2515, 2129, 1998
  12, 1634, 1633,  218, 1932
  13,  218,  217,  730, 1932
  14, 1668, 1669,  486, 2516
  15,  487, 1669,  741, 2516
  16, 2065,  499, 2517,  445
  17,  445, 2022, 2517, 2021
  18, 2065, 2066, 2517,  500
  19,  867, 2518, 2517,  900
  20, 2250,  821,  822,  953
** ... 7390 like lines cut
*Nset, nset=InitiallyInvalid
 39,
*Nset, nset=Set-1, generate
    1,  2617,     1
*Elset, elset=Set-1, generate
    1,  7410,     1
** Section: Section-1
*Solid Section, elset=Set-1, material=Aluminium
,
*End Part
**  
**
** ASSEMBLY
**
*Assembly, name=Assembly
**  
*Instance, name=TiltBoom-1, part=TiltBoom
*End Instance
**  
*End Assembly
** 
** MATERIALS
** 
*Material, name=Aluminium
*Density
2700.,
*Elastic
 6.9e+10, 0.33
** ----------------------------------------------------------------
** 
** STEP: Step-1
** 
*Step, name=Step-1, nlgeom=NO, perturbation
*Frequency, eigensolver=Lanczos, sim, acoustic coupling=on, normalization=mass
10, , , , , 
** 
** OUTPUT REQUESTS
** 
*Restart, write, frequency=0
** 
** FIELD OUTPUT: F-Output-1
** 
*Output, field, variable=PRESELECT
*End Step
** ----------------------------------------------------------------
** 
** 
** STEP: Matrix gen
*Step, name=matrix-step
*Matrix generate, stiffness, mass
*Matrix output, stiffness, mass, format=coordinate
*End Step

